Version 4
SHEET 1 880 1128
WIRE 80 16 -80 16
WIRE 352 16 80 16
WIRE 448 16 352 16
WIRE -80 48 -80 16
WIRE 80 80 80 16
WIRE 32 96 0 96
WIRE -80 176 -80 128
WIRE 0 176 0 96
WIRE 0 176 -80 176
WIRE 352 192 352 16
WIRE 80 224 80 176
WIRE 176 224 80 224
WIRE -80 240 -80 176
WIRE 176 240 176 224
WIRE 80 272 80 224
WIRE -384 288 -848 288
WIRE -272 288 -320 288
WIRE -144 288 -192 288
WIRE 176 336 176 320
WIRE -80 432 -80 336
WIRE 80 432 80 352
WIRE 80 432 -80 432
WIRE 128 432 80 432
WIRE 176 432 176 400
WIRE 176 432 128 432
WIRE 352 432 352 272
WIRE 352 432 176 432
WIRE 128 464 128 432
WIRE 80 544 -80 544
WIRE 448 544 448 16
WIRE 448 544 80 544
WIRE -80 576 -80 544
WIRE 80 608 80 544
WIRE 32 624 0 624
WIRE -80 704 -80 656
WIRE 0 704 0 624
WIRE 0 704 -80 704
WIRE 80 752 80 704
WIRE 176 752 80 752
WIRE -80 768 -80 704
WIRE 176 768 176 752
WIRE 80 800 80 752
WIRE -848 816 -848 288
WIRE -576 816 -848 816
WIRE -432 816 -496 816
WIRE -368 816 -432 816
WIRE -256 816 -304 816
WIRE -144 816 -176 816
WIRE -848 848 -848 816
WIRE -432 864 -432 816
WIRE 176 864 176 848
WIRE -848 960 -848 928
WIRE -432 960 -432 928
WIRE -432 960 -848 960
WIRE -80 960 -80 864
WIRE -80 960 -432 960
WIRE 80 960 80 880
WIRE 80 960 -80 960
WIRE 128 960 80 960
WIRE 176 960 176 928
WIRE 176 960 128 960
WIRE 128 992 128 960
FLAG 128 464 0
FLAG 128 992 0
SYMBOL pmos 32 176 M180
SYMATTR InstName M1
SYMATTR Value ZXM62P02E6
SYMBOL res 160 224 R0
SYMATTR InstName R1
SYMATTR Value 1300
SYMBOL LED 160 336 R0
SYMATTR InstName D1
SYMBOL voltage 352 176 R0
WINDOW 123 0 0 Left 0
WINDOW 39 0 0 Left 0
SYMATTR InstName V1
SYMATTR Value 15
SYMBOL res -96 32 R0
SYMATTR InstName R2
SYMATTR Value 1k
SYMBOL npn -144 240 R0
SYMATTR InstName Q1
SYMATTR Value 2N2222
SYMBOL pmos 32 704 M180
SYMATTR InstName M2
SYMATTR Value ZXM62P02E6
SYMBOL res 160 752 R0
SYMATTR InstName R3
SYMATTR Value 1300
SYMBOL LED 160 864 R0
SYMATTR InstName D2
SYMBOL res -96 560 R0
SYMATTR InstName R4
SYMATTR Value 1k
SYMBOL npn -144 768 R0
SYMATTR InstName Q2
SYMATTR Value 2N2222
SYMBOL Digital\\buf1 -368 752 R0
WINDOW 3 0 0 Invisible 0
SYMATTR Value Vhigh = 5,Vt = 1.4, Vh = 0.8
SYMATTR InstName A2
SYMBOL res -480 800 R90
WINDOW 0 0 56 VBottom 2
WINDOW 3 32 56 VTop 2
SYMATTR InstName R5
SYMATTR Value 1000
SYMBOL cap -448 864 R0
SYMATTR InstName C1
SYMATTR Value 1µ
SYMBOL voltage -848 832 R0
WINDOW 3 -67 -166 VRight 2
WINDOW 123 0 0 Left 0
WINDOW 39 0 0 Left 0
SYMATTR Value PULSE(0 5 1n 1n 1n 5m)
SYMATTR InstName V2
SYMBOL res 64 256 R0
SYMATTR InstName R6
SYMATTR Value 15
SYMBOL res 64 784 R0
SYMATTR InstName R7
SYMATTR Value 15
SYMBOL res -272 832 R270
WINDOW 0 32 56 VTop 2
WINDOW 3 0 56 VBottom 2
SYMATTR InstName R8
SYMATTR Value 1000
SYMBOL res -288 304 R270
WINDOW 0 32 56 VTop 2
WINDOW 3 0 56 VBottom 2
SYMATTR InstName R9
SYMATTR Value 1000
SYMBOL Digital\\buf1 -384 224 R0
WINDOW 3 0 0 Invisible 0
SYMATTR Value Vhigh = 5,Vt = 1.4, Vh = 0.8
SYMATTR InstName A1
TEXT -688 176 Left 2 !.tran 10m
